3
xy, +x; E = -76.013661190471
O     0    0    0
H     0.7  0.7  0
H     0.7 -0.7  0
3
xy, +y; E = -76.013712630116
O     0    0    0
H    -0.7  0.7  0
H     0.7  0.7  0
3
xy, -x; E = -76.013661190471
O     0    0    0
H    -0.7  0.7  0
H    -0.7 -0.7  0
3
xy, -y; E = -76.013712630116   ###
O     0    0    0
H    -0.7 -0.7  0
H     0.7 -0.7  0
3
yz, +y; E = -76.013712630116
O     0    0    0
H     0    0.7  0.7
H     0    0.7 -0.7
3
yz, +z; E = -76.013661190471
O     0    0    0
H     0   -0.7  0.7
H     0    0.7  0.7
3
yz, -y; E = -76.013712630116
O     0    0    0
H     0   -0.7  0.7
H     0   -0.7 -0.7
3
yz, -z; E = -76.013661190471   ###
O     0    0    0
H     0   -0.7 -0.7
H     0    0.7 -0.7
3
zx, +x; E = -76.015064457022
O     0    0    0
H     0.7  0    0.7
H     0.7  0   -0.7
3
zx, +z; E = -76.015064457022
O     0    0    0
H    -0.7  0    0.7
H     0.7  0    0.7
3
zx, -x; E = -76.015064457022
O     0    0    0
H    -0.7  0    0.7
H    -0.7  0   -0.7
3
zx, -z; E = -76.015064457022
O     0    0    0
H    -0.7  0   -0.7
H     0.7  0   -0.7